<?xml version="1.0" encoding="UTF-8"?>

<!-- generated on 10/06/23 15:00:48 by Eclipse SUMO netedit Version 1.6.0
<configuration xmlns:xsi="http://www.w3.org/2001/XMLSchema-instance" xsi:noNamespaceSchemaLocation="http://sumo.dlr.de/xsd/netconvertConfiguration.xsd">

    <input>
        <sumo-net-file value="C:\work\previousproject\platoon\newplatoon\SUMO\sumo.net.xml"/>
    </input>

    <output>
        <output-file value="C:\work\previousproject\platoon\newplatoon\SUMO\sumo.net.xml"/>
    </output>

    <processing>
        <geometry.min-radius.fix.railways value="false"/>
        <geometry.max-grade.fix value="false"/>
        <offset.disable-normalization value="true"/>
        <lefthand value="false"/>
    </processing>

    <junctions>
        <no-turnarounds value="true"/>
        <junctions.corner-detail value="5"/>
        <junctions.limit-turn-speed value="5.5"/>
        <rectangular-lane-cut value="false"/>
    </junctions>

    <pedestrian>
        <walkingareas value="false"/>
    </pedestrian>

    <netedit>
        <route-files value="C:\work\previousproject\platoon\newplatoon\SUMO\addd.rou.xml"/>
    </netedit>

    <report>
        <aggregate-warnings value="5"/>
    </report>

</configuration>
-->

<routes xmlns:xsi="http://www.w3.org/2001/XMLSchema-instance" xsi:noNamespaceSchemaLocation="http://sumo.dlr.de/xsd/routes_file.xsd">
    <route edges="gneE27 gneE28 gneE29 gneE30 gneE32 gneE33 gneE34" color="yellow" id="route_10"/>
    <route edges="gneE53 gneE54 gneE55 gneE56 gneE57 gneE58 gneE59" color="yellow" id="route_11"/>
</routes>
